/*--------------------------------*- C++ -*----------------------------------*\
  =========                 |
  \\      /  F ield         | OpenFOAM: The Open Source CFD Toolbox
   \\    /   O peration     | Website:  https://openfoam.org
    \\  /    A nd           | Version:  12
     \\/     M anipulation  |
\*---------------------------------------------------------------------------*/
/*   Windows 32 and 64 bit porting by blueCAPE: http://www.bluecape.com.pt   *\
|  Based on Windows porting (2.0.x v4) by Symscape: http://www.symscape.com   |
\*---------------------------------------------------------------------------*/
FoamFile
{
    format      ascii;
    class       dictionary;
    location    "constant/polyMesh";
    object      meshMetaDict;
}
// * * * * * * * * * * * * * * * * * * * * * * * * * * * * * * * * * * * * * //

surfaceFile     "Pad002_Geometry.fms";

surfaceMeta
{
    nPoints         30;
    nFacets         56;
    nPatches        5;
    nFeatureEdges   45;
    patches
    {
        patch_1_0
        {
            type            empty;
            nFacets         2;
        }
        patch_2_0
        {
            type            empty;
            nFacets         2;
        }
        patch_3_0
        {
            type            empty;
            nFacets         2;
        }
        patch_4_0
        {
            type            empty;
            nFacets         12;
        }
        patch_5_0
        {
            type            empty;
            nFacets         38;
        }
    }
    pointSubsets
    {
    }
    facetSubsets
    {
    }
    featureEdgeSubsets
    {
    }
}
