/*--------------------------------*- C++ -*----------------------------------*\
  =========                 |
  \\      /  F ield         | OpenFOAM: The Open Source CFD Toolbox
   \\    /   O peration     | Website:  https://openfoam.org
    \\  /    A nd           | Version:  12
     \\/     M anipulation  |
\*---------------------------------------------------------------------------*/
/*   Windows 32 and 64 bit porting by blueCAPE: http://www.bluecape.com.pt   *\
|  Based on Windows porting (2.0.x v4) by Symscape: http://www.symscape.com   |
\*---------------------------------------------------------------------------*/
FoamFile
{
    format      ascii;
    class       polyBoundaryMesh;
    location    "constant/polyMesh";
    object      boundary;
}
// * * * * * * * * * * * * * * * * * * * * * * * * * * * * * * * * * * * * * //

10
(
    door
    {
        type            wall;
        inGroups        List<word> 1(wall);
        nFaces          0;
        startFace       28973;
    }
    window
    {
        type            patch;
        nFaces          0;
        startFace       28973;
    }
    fan
    {
        type            patch;
        nFaces          0;
        startFace       28973;
    }
    constraint
    {
        type            symmetry;
        inGroups        List<word> 1(symmetry);
        nFaces          507;
        startFace       28973;
    }
    wall
    {
        type            wall;
        inGroups        List<word> 1(wall);
        nFaces          867;
        startFace       29480;
    }
    defaultFaces
    {
        type            patch;
        nFaces          0;
        startFace       30347;
    }
    procBoundary2to0
    {
        type            processor;
        inGroups        List<word> 1(processor);
        nFaces          360;
        startFace       30347;
        matchTolerance  0.0001;
        myProcNo        2;
        neighbProcNo    0;
    }
    procBoundary2to3
    {
        type            processor;
        inGroups        List<word> 1(processor);
        nFaces          580;
        startFace       30707;
        matchTolerance  0.0001;
        myProcNo        2;
        neighbProcNo    3;
    }
    procBoundary2to4
    {
        type            processor;
        inGroups        List<word> 1(processor);
        nFaces          8;
        startFace       31287;
        matchTolerance  0.0001;
        myProcNo        2;
        neighbProcNo    4;
    }
    procBoundary2to6
    {
        type            processor;
        inGroups        List<word> 1(processor);
        nFaces          572;
        startFace       31295;
        matchTolerance  0.0001;
        myProcNo        2;
        neighbProcNo    6;
    }
)

// ************************************************************************* //
