/*--------------------------------*- C++ -*----------------------------------*\
  =========                 |
  \\      /  F ield         | OpenFOAM: The Open Source CFD Toolbox
   \\    /   O peration     | Website:  https://openfoam.org
    \\  /    A nd           | Version:  12
     \\/     M anipulation  |
\*---------------------------------------------------------------------------*/
/*   Windows 32 and 64 bit porting by blueCAPE: http://www.bluecape.com.pt   *\
|  Based on Windows porting (2.0.x v4) by Symscape: http://www.symscape.com   |
\*---------------------------------------------------------------------------*/
FoamFile
{
    format      ascii;
    class       polyBoundaryMesh;
    location    "constant/polyMesh";
    object      boundary;
}
// * * * * * * * * * * * * * * * * * * * * * * * * * * * * * * * * * * * * * //

10
(
    door
    {
        type            patch;
        nFaces          0;
        startFace       29323;
    }
    window
    {
        type            patch;
        nFaces          0;
        startFace       29323;
    }
    fan
    {
        type            patch;
        nFaces          0;
        startFace       29323;
    }
    constraint
    {
        type            symmetry;
        inGroups        List<word> 1(symmetry);
        nFaces          511;
        startFace       29323;
    }
    wall
    {
        type            wall;
        inGroups        List<word> 1(wall);
        nFaces          889;
        startFace       29834;
    }
    defaultFaces
    {
        type            patch;
        nFaces          0;
        startFace       30723;
    }
    procBoundary1to0
    {
        type            processor;
        inGroups        List<word> 1(processor);
        nFaces          546;
        startFace       30723;
        matchTolerance  0.0001;
        myProcNo        1;
        neighbProcNo    0;
    }
    procBoundary1to2
    {
        type            processor;
        inGroups        List<word> 1(processor);
        nFaces          371;
        startFace       31269;
        matchTolerance  0.0001;
        myProcNo        1;
        neighbProcNo    2;
    }
    procBoundary1to3
    {
        type            processor;
        inGroups        List<word> 1(processor);
        nFaces          9;
        startFace       31640;
        matchTolerance  0.0001;
        myProcNo        1;
        neighbProcNo    3;
    }
    procBoundary1to6
    {
        type            processor;
        inGroups        List<word> 1(processor);
        nFaces          540;
        startFace       31649;
        matchTolerance  0.0001;
        myProcNo        1;
        neighbProcNo    6;
    }
)

// ************************************************************************* //
